CD

Vconf v2.1
126132  0  0  0  0  0  0  0  0999 V2000
   20.7730  -17.8110   12.5690 C   0  0  2  0  0  0  0  0  0  0  0
   20.4210  -18.7850   12.2270 H   0  0  0  0  0  0  0  0  0  0  0
   21.9580  -17.5180   11.8180 O   0  0  0  0  0  0  0  0  0  0  0
   19.6210  -16.8010   12.3530 C   0  0  2  0  0  0  0  0  0  0  0
   18.6830  -17.3540   12.3210 H   0  0  0  0  0  0  0  0  0  0  0
   19.7520  -16.1210   11.1090 O   0  0  0  0  0  0  0  0  0  0  0
   19.9490  -16.7080   10.3470 H   0  0  0  0  0  0  0  0  0  0  0
   19.5460  -15.8040   13.5260 C   0  0  1  0  0  0  0  0  0  0  0
   20.4820  -15.2570   13.6100 H   0  0  0  0  0  0  0  0  0  0  0
   18.5030  -14.8720   13.2690 O   0  0  0  0  0  0  0  0  0  0  0
   17.6210  -15.2770   13.1360 H   0  0  0  0  0  0  0  0  0  0  0
   19.2900  -16.5520   14.8540 C   0  0  1  0  0  0  0  0  0  0  0
   18.2200  -16.7380   14.9440 H   0  0  0  0  0  0  0  0  0  0  0
   20.0440  -17.9030   14.9090 C   0  0  2  0  0  0  0  0  0  0  0
   20.5030  -18.0120   15.8930 H   0  0  0  0  0  0  0  0  0  0  0
   21.1040  -17.9330   13.9510 O   0  0  0  0  0  0  0  0  0  0  0
   19.0910  -19.0970   14.7340 C   0  0  0  0  0  0  0  0  0  0  0
   18.5070  -18.9880   13.8210 H   0  0  0  0  0  0  0  0  0  0  0
   19.6700  -20.0190   14.6810 H   0  0  0  0  0  0  0  0  0  0  0
   18.2100  -19.1670   15.8480 O   0  0  0  0  0  0  0  0  0  0  0
   17.7090  -18.3420   16.0260 H   0  0  0  0  0  0  0  0  0  0  0
   24.0490  -13.9860   11.8240 C   0  0  2  0  0  0  0  0  0  0  0
   23.0560  -13.7150   12.1820 H   0  0  0  0  0  0  0  0  0  0  0
   24.8360  -12.8010   11.6830 O   0  0  0  0  0  0  0  0  0  0  0
   24.6280  -14.9900   12.8290 C   0  0  2  0  0  0  0  0  0  0  0
   24.8420  -14.4820   13.7710 H   0  0  0  0  0  0  0  0  0  0  0
   25.8390  -15.5340   12.3160 O   0  0  0  0  0  0  0  0  0  0  0
   26.5070  -14.8580   12.0780 H   0  0  0  0  0  0  0  0  0  0  0
   23.5880  -16.1140   13.0570 C   0  0  1  0  0  0  0  0  0  0  0
   24.1080  -17.0640   13.1890 H   0  0  0  0  0  0  0  0  0  0  0
   22.8760  -15.8110   14.2500 O   0  0  0  0  0  0  0  0  0  0  0
   22.2220  -16.4890   14.5170 H   0  0  0  0  0  0  0  0  0  0  0
   22.5870  -16.2340   11.8800 C   0  0  1  0  0  0  0  0  0  0  0
   21.8290  -15.4630   11.9930 H   0  0  0  0  0  0  0  0  0  0  0
   23.3030  -15.9390   10.5430 C   0  0  2  0  0  0  0  0  0  0  0
   24.0730  -16.6950   10.3820 H   0  0  0  0  0  0  0  0  0  0  0
   23.9210  -14.6460   10.5650 O   0  0  0  0  0  0  0  0  0  0  0
   22.3290  -15.9440    9.3530 C   0  0  0  0  0  0  0  0  0  0  0
   21.5770  -15.1690    9.4980 H   0  0  0  0  0  0  0  0  0  0  0
   22.8850  -15.7290    8.4400 H   0  0  0  0  0  0  0  0  0  0  0
   21.6820  -17.2020    9.2080 O   0  0  0  0  0  0  0  0  0  0  0
   22.2950  -17.9610    9.1080 H   0  0  0  0  0  0  0  0  0  0  0
   23.1560   -9.1530   12.6140 C   0  0  2  0  0  0  0  0  0  0  0
   22.9420   -9.7320   13.5130 H   0  0  0  0  0  0  0  0  0  0  0
   22.5190   -7.8840   12.7330 O   0  0  0  0  0  0  0  0  0  0  0
   24.6830   -9.0690   12.4640 C   0  0  2  0  0  0  0  0  0  0  0
   25.1080   -8.5430   13.3190 H   0  0  0  0  0  0  0  0  0  0  0
   24.9900   -8.3410   11.2800 O   0  0  0  0  0  0  0  0  0  0  0
   24.5510   -8.6900   10.4760 H   0  0  0  0  0  0  0  0  0  0  0
   25.2740  -10.5000   12.3770 C   0  0  1  0  0  0  0  0  0  0  0
   26.0470  -10.5190   11.6070 H   0  0  0  0  0  0  0  0  0  0  0
   25.8720  -10.8450   13.6200 O   0  0  0  0  0  0  0  0  0  0  0
   26.2820  -11.7350   13.6300 H   0  0  0  0  0  0  0  0  0  0  0
   24.2060  -11.5660   12.0480 C   0  0  1  0  0  0  0  0  0  0  0
   23.6190  -11.7380   12.9530 H   0  0  0  0  0  0  0  0  0  0  0
   23.2700  -10.9880   10.9600 C   0  0  2  0  0  0  0  0  0  0  0
   23.8740  -10.7170   10.0940 H   0  0  0  0  0  0  0  0  0  0  0
   22.6340   -9.8080   11.4570 O   0  0  0  0  0  0  0  0  0  0  0
   22.1570  -11.9400   10.4930 C   0  0  0  0  0  0  0  0  0  0  0
   22.5930  -12.7710    9.9440 H   0  0  0  0  0  0  0  0  0  0  0
   21.6010  -12.3150   11.3530 H   0  0  0  0  0  0  0  0  0  0  0
   21.2540  -11.2640    9.6270 O   0  0  0  0  0  0  0  0  0  0  0
   20.5670  -11.8410    9.2310 H   0  0  0  0  0  0  0  0  0  0  0
   18.4590   -7.5030   13.6520 C   0  0  2  0  0  0  0  0  0  0  0
   18.6440   -8.2100   14.4620 H   0  0  0  0  0  0  0  0  0  0  0
   17.0640   -7.1950   13.6110 O   0  0  0  0  0  0  0  0  0  0  0
   19.3130   -6.2470   13.9140 C   0  0  2  0  0  0  0  0  0  0  0
   19.4160   -6.1230   14.9920 H   0  0  0  0  0  0  0  0  0  0  0
   18.6920   -5.0800   13.3850 O   0  0  0  0  0  0  0  0  0  0  0
   19.2030   -4.2570   13.5340 H   0  0  0  0  0  0  0  0  0  0  0
   20.7140   -6.3850   13.2790 C   0  0  1  0  0  0  0  0  0  0  0
   20.6790   -6.0170   12.2520 H   0  0  0  0  0  0  0  0  0  0  0
   21.6490   -5.6020   14.0090 O   0  0  0  0  0  0  0  0  0  0  0
   22.5670   -5.6680   13.6700 H   0  0  0  0  0  0  0  0  0  0  0
   21.1770   -7.8510   13.2460 C   0  0  1  0  0  0  0  0  0  0  0
   21.1820   -8.2280   14.2700 H   0  0  0  0  0  0  0  0  0  0  0
   20.1710   -8.6770   12.3990 C   0  0  2  0  0  0  0  0  0  0  0
   20.5060   -8.6900   11.3620 H   0  0  0  0  0  0  0  0  0  0  0
   18.8690   -8.0830   12.4160 O   0  0  0  0  0  0  0  0  0  0  0
   20.0360  -10.1280   12.9030 C   0  0  0  0  0  0  0  0  0  0  0
   21.0100  -10.5890   13.0420 H   0  0  0  0  0  0  0  0  0  0  0
   19.5090  -10.1420   13.8540 H   0  0  0  0  0  0  0  0  0  0  0
   19.3140  -10.8960   11.9520 O   0  0  0  0  0  0  0  0  0  0  0
   19.7360  -10.9260   11.0670 H   0  0  0  0  0  0  0  0  0  0  0
   15.5870  -11.0230   14.7080 C   0  0  2  0  0  0  0  0  0  0  0
   14.6450  -11.1130   15.2510 H   0  0  0  0  0  0  0  0  0  0  0
   16.2120  -12.3100   14.6920 O   0  0  0  0  0  0  0  0  0  0  0
   15.2900  -10.5420   13.2680 C   0  0  2  0  0  0  0  0  0  0  0
   14.2780  -10.1380   13.2290 H   0  0  0  0  0  0  0  0  0  0  0
   15.3830  -11.6190   12.3430 O   0  0  0  0  0  0  0  0  0  0  0
   16.2600  -12.0580   12.3370 H   0  0  0  0  0  0  0  0  0  0  0
   16.2790   -9.4290   12.8810 C   0  0  1  0  0  0  0  0  0  0  0
   17.2870   -9.8280   12.9760 H   0  0  0  0  0  0  0  0  0  0  0
   16.0760   -8.9980   11.5430 O   0  0  0  0  0  0  0  0  0  0  0
   16.7110   -8.3060   11.2570 H   0  0  0  0  0  0  0  0  0  0  0
   16.0970   -8.2300   13.8350 C   0  0  1  0  0  0  0  0  0  0  0
   15.1210   -7.7950   13.6210 H   0  0  0  0  0  0  0  0  0  0  0
   16.1170   -8.6960   15.3120 C   0  0  2  0  0  0  0  0  0  0  0
   16.8930   -8.1540   15.8520 H   0  0  0  0  0  0  0  0  0  0  0
   16.4290  -10.0890   15.3910 O   0  0  0  0  0  0  0  0  0  0  0
   14.7820   -8.4070   16.0180 C   0  0  0  0  0  0  0  0  0  0  0
   13.9590   -8.8570   15.4630 H   0  0  0  0  0  0  0  0  0  0  0
   14.8070   -8.8270   17.0240 H   0  0  0  0  0  0  0  0  0  0  0
   14.5780   -7.0030   16.1070 O   0  0  0  0  0  0  0  0  0  0  0
   14.5650   -6.5380   15.2430 H   0  0  0  0  0  0  0  0  0  0  0
   19.0650  -14.6690   16.5130 C   0  0  2  0  0  0  0  0  0  0  0
   19.6240  -14.3770   17.4020 H   0  0  0  0  0  0  0  0  0  0  0
   19.7500  -15.8060   15.9850 O   0  0  0  0  0  0  0  0  0  0  0
   17.6100  -14.9500   16.9590 C   0  0  2  0  0  0  0  0  0  0  0
   17.4520  -14.4790   17.9300 H   0  0  0  0  0  0  0  0  0  0  0
   17.3450  -16.3410   17.1070 O   0  0  0  0  0  0  0  0  0  0  0
   16.4210  -16.5390   17.3700 H   0  0  0  0  0  0  0  0  0  0  0
   16.6190  -14.3230   15.9650 C   0  0  1  0  0  0  0  0  0  0  0
   16.7770  -14.7630   14.9820 H   0  0  0  0  0  0  0  0  0  0  0
   15.2860  -14.5990   16.3780 O   0  0  0  0  0  0  0  0  0  0  0
   15.0420  -14.2080   17.2430 H   0  0  0  0  0  0  0  0  0  0  0
   16.8300  -12.7960   15.8870 C   0  0  1  0  0  0  0  0  0  0  0
   16.3520  -12.3410   16.7570 H   0  0  0  0  0  0  0  0  0  0  0
   18.3330  -12.4270   15.8630 C   0  0  2  0  0  0  0  0  0  0  0
   18.5030  -11.7150   15.0570 H   0  0  0  0  0  0  0  0  0  0  0
   19.1300  -13.5830   15.5880 O   0  0  0  0  0  0  0  0  0  0  0
   18.7970  -11.7650   17.1750 C   0  0  0  0  0  0  0  0  0  0  0
   18.6390  -12.4390   18.0160 H   0  0  0  0  0  0  0  0  0  0  0
   19.8600  -11.5330   17.0980 H   0  0  0  0  0  0  0  0  0  0  0
   18.0800  -10.5650   17.4180 O   0  0  0  0  0  0  0  0  0  0  0
   18.0910   -9.9280   16.6720 H   0  0  0  0  0  0  0  0  0  0  0
  1  2  1  0  0  0  0
  1  3  1  0  0  0  0
  1  4  1  0  0  0  0
  1 16  1  0  0  0  0
  3 33  1  0  0  0  0
  4  5  1  0  0  0  0
  4  6  1  0  0  0  0
  4  8  1  0  0  0  0
  6  7  1  0  0  0  0
  8  9  1  0  0  0  0
  8 10  1  0  0  0  0
  8 12  1  0  0  0  0
 10 11  1  0  0  0  0
 12 13  1  0  0  0  0
 12 14  1  0  0  0  0
 12108  1  0  0  0  0
 14 15  1  0  0  0  0
 14 16  1  0  0  0  0
 14 17  1  0  0  0  0
 17 18  1  0  0  0  0
 17 19  1  0  0  0  0
 17 20  1  0  0  0  0
 20 21  1  0  0  0  0
 22 23  1  0  0  0  0
 22 24  1  0  0  0  0
 22 25  1  0  0  0  0
 22 37  1  0  0  0  0
 24 54  1  0  0  0  0
 25 26  1  0  0  0  0
 25 27  1  0  0  0  0
 25 29  1  0  0  0  0
 27 28  1  0  0  0  0
 29 30  1  0  0  0  0
 29 31  1  0  0  0  0
 29 33  1  0  0  0  0
 31 32  1  0  0  0  0
 33 34  1  0  0  0  0
 33 35  1  0  0  0  0
 35 36  1  0  0  0  0
 35 37  1  0  0  0  0
 35 38  1  0  0  0  0
 38 39  1  0  0  0  0
 38 40  1  0  0  0  0
 38 41  1  0  0  0  0
 41 42  1  0  0  0  0
 43 44  1  0  0  0  0
 43 45  1  0  0  0  0
 43 46  1  0  0  0  0
 43 58  1  0  0  0  0
 45 75  1  0  0  0  0
 46 47  1  0  0  0  0
 46 48  1  0  0  0  0
 46 50  1  0  0  0  0
 48 49  1  0  0  0  0
 50 51  1  0  0  0  0
 50 52  1  0  0  0  0
 50 54  1  0  0  0  0
 52 53  1  0  0  0  0
 54 55  1  0  0  0  0
 54 56  1  0  0  0  0
 56 57  1  0  0  0  0
 56 58  1  0  0  0  0
 56 59  1  0  0  0  0
 59 60  1  0  0  0  0
 59 61  1  0  0  0  0
 59 62  1  0  0  0  0
 62 63  1  0  0  0  0
 64 65  1  0  0  0  0
 64 66  1  0  0  0  0
 64 67  1  0  0  0  0
 64 79  1  0  0  0  0
 66 96  1  0  0  0  0
 67 68  1  0  0  0  0
 67 69  1  0  0  0  0
 67 71  1  0  0  0  0
 69 70  1  0  0  0  0
 71 72  1  0  0  0  0
 71 73  1  0  0  0  0
 71 75  1  0  0  0  0
 73 74  1  0  0  0  0
 75 76  1  0  0  0  0
 75 77  1  0  0  0  0
 77 78  1  0  0  0  0
 77 79  1  0  0  0  0
 77 80  1  0  0  0  0
 80 81  1  0  0  0  0
 80 82  1  0  0  0  0
 80 83  1  0  0  0  0
 83 84  1  0  0  0  0
 85 86  1  0  0  0  0
 85 87  1  0  0  0  0
 85 88  1  0  0  0  0
 85100  1  0  0  0  0
 87117  1  0  0  0  0
 88 89  1  0  0  0  0
 88 90  1  0  0  0  0
 88 92  1  0  0  0  0
 90 91  1  0  0  0  0
 92 93  1  0  0  0  0
 92 94  1  0  0  0  0
 92 96  1  0  0  0  0
 94 95  1  0  0  0  0
 96 97  1  0  0  0  0
 96 98  1  0  0  0  0
 98 99  1  0  0  0  0
 98100  1  0  0  0  0
 98101  1  0  0  0  0
101102  1  0  0  0  0
101103  1  0  0  0  0
101104  1  0  0  0  0
104105  1  0  0  0  0
106107  1  0  0  0  0
106108  1  0  0  0  0
106109  1  0  0  0  0
106121  1  0  0  0  0
109110  1  0  0  0  0
109111  1  0  0  0  0
109113  1  0  0  0  0
111112  1  0  0  0  0
113114  1  0  0  0  0
113115  1  0  0  0  0
113117  1  0  0  0  0
115116  1  0  0  0  0
117118  1  0  0  0  0
117119  1  0  0  0  0
119120  1  0  0  0  0
119121  1  0  0  0  0
119122  1  0  0  0  0
122123  1  0  0  0  0
122124  1  0  0  0  0
122125  1  0  0  0  0
125126  1  0  0  0  0
M  END
> <Energy>
45.833

> <Ring Energy>
None

> <VC.Vconf.Error>
N/A

> <Time>
9.9060635

> <MaxConf>
N/A

$$$$
