o1_mol_1

Vconf v2.1
 14 14  0  0  0  0  0  0  0  0999 V2000
    1.9100   -0.6440    0.4250 C   0  0  0  0  0  0  0  0  0  0  0
    2.0130    0.7450    0.6140 C   0  0  0  0  0  0  0  0  0  0  0
   -0.4900   -0.4230    0.1140 C   0  0  0  0  0  0  0  0  0  0  0
    0.6580   -1.2280    0.1750 C   0  0  0  0  0  0  0  0  0  0  0
   -0.3850    0.9660    0.3030 C   0  0  0  0  0  0  0  0  0  0  0
    0.8670    1.5710    0.5560 C   0  0  0  0  0  0  0  0  0  0  0
    0.9720    2.9700    0.7470 C   0  0  0  0  0  0  0  0  0  0  0
   -0.0370    3.7120    0.7170 O   0  0  0  0  0  0  0  0  0  0  0
    2.0790    3.5230    0.9530 O   0  5  0  0  0  0  0  0  0  0  0
    2.7460   -1.2280    0.4690 H   0  0  0  0  0  0  0  0  0  0  0
    2.9320    1.1520    0.7950 H   0  0  0  0  0  0  0  0  0  0  0
   -1.4010   -0.8450   -0.0680 H   0  0  0  0  0  0  0  0  0  0  0
    0.5830   -2.2370    0.0370 H   0  0  0  0  0  0  0  0  0  0  0
   -1.2320    1.5360    0.2550 H   0  0  0  0  0  0  0  0  0  0  0
  1  2  1  0  0  0  0
  1  4  2  0  0  0  0
  1 10  1  0  0  0  0
  2  6  2  0  0  0  0
  2 11  1  0  0  0  0
  3  4  1  0  0  0  0
  3  5  2  0  0  0  0
  3 12  1  0  0  0  0
  4 13  1  0  0  0  0
  5  6  1  0  0  0  0
  5 14  1  0  0  0  0
  6  7  1  0  0  0  0
  7  8  2  0  0  0  0
  7  9  1  0  0  0  0
M  END
> <Energy>
15.3

> <Ring Energy>
14.316

$$$$
