o2

Vconf v2.1
 17 17  0  0  0  0  0  0  0  0999 V2000
    1.9100   -0.3260    0.3570 C   0  0  0  0  0  0  0  0  0  0  0
    2.0130    1.0650    0.5260 C   0  0  0  0  0  0  0  0  0  0  0
   -0.5050   -0.1290    0.2130 C   0  0  0  0  0  0  0  0  0  0  0
    0.6500   -0.9330    0.2000 C   0  0  0  0  0  0  0  0  0  0  0
   -0.4010    1.2630    0.3830 C   0  0  0  0  0  0  0  0  0  0  0
    0.8600    1.8810    0.5420 C   0  0  0  0  0  0  0  0  0  0  0
    0.9640    3.2820    0.7130 C   0  0  0  0  0  0  0  0  0  0  0
    2.0750    3.8430    0.8580 O   0  0  0  0  0  0  0  0  0  0  0
    0.5590   -2.3900    0.0230 C   0  0  0  0  0  0  0  0  0  0  0
   -0.0520    4.0190    0.7250 O   0  5  0  0  0  0  0  0  0  0  0
    2.7560   -0.8970    0.3490 H   0  0  0  0  0  0  0  0  0  0  0
    2.9390    1.4810    0.6380 H   0  0  0  0  0  0  0  0  0  0  0
   -1.4260   -0.5530    0.1000 H   0  0  0  0  0  0  0  0  0  0  0
   -1.2540    1.8240    0.3900 H   0  0  0  0  0  0  0  0  0  0  0
   -0.4790   -2.7100   -0.0850 H   0  0  0  0  0  0  0  0  0  0  0
    1.1110   -2.6850   -0.8700 H   0  0  0  0  0  0  0  0  0  0  0
    0.9900   -2.8910    0.8920 H   0  0  0  0  0  0  0  0  0  0  0
  1  2  1  0  0  0  0
  1  4  2  0  0  0  0
  1 11  1  0  0  0  0
  2  6  2  0  0  0  0
  2 12  1  0  0  0  0
  3  4  1  0  0  0  0
  3  5  2  0  0  0  0
  3 13  1  0  0  0  0
  4  9  1  0  0  0  0
  5  6  1  0  0  0  0
  5 14  1  0  0  0  0
  6  7  1  0  0  0  0
  7  8  2  0  0  0  0
  7 10  1  0  0  0  0
  9 15  1  0  0  0  0
  9 16  1  0  0  0  0
  9 17  1  0  0  0  0
M  END
> <Energy>
15.861

> <Ring Energy>
15.269

> <VC.Vconf.Error>
N/A

> <Time>
1.1388073

> <MaxConf>
N/A

$$$$
