o4

Vconf v2.1
 14 14  0  0  0  0  0  0  0  0999 V2000
    1.9130   -0.3370    0.4480 C   0  0  0  0  0  0  0  0  0  0  0
    2.0080    1.0560    0.6050 C   0  0  0  0  0  0  0  0  0  0  0
   -0.4900   -0.1340    0.1380 C   0  0  0  0  0  0  0  0  0  0  0
    0.6630   -0.9370    0.2130 C   0  0  0  0  0  0  0  0  0  0  0
   -0.3900    1.2590    0.2950 C   0  0  0  0  0  0  0  0  0  0  0
    0.8590    1.8750    0.5310 C   0  0  0  0  0  0  0  0  0  0  0
    0.9580    3.2780    0.6890 C   0  0  0  0  0  0  0  0  0  0  0
   -0.0550    4.0140    0.6440 O   0  0  0  0  0  0  0  0  0  0  0
    2.0630    3.8400    0.8800 O   0  5  0  0  0  0  0  0  0  0  0
    0.5450   -2.6140    0.0230 Cl  0  0  0  0  0  0  0  0  0  0  0
    2.7580   -0.9070    0.5050 H   0  0  0  0  0  0  0  0  0  0  0
    2.9260    1.4710    0.7750 H   0  0  0  0  0  0  0  0  0  0  0
   -1.4040   -0.5550   -0.0320 H   0  0  0  0  0  0  0  0  0  0  0
   -1.2400    1.8230    0.2370 H   0  0  0  0  0  0  0  0  0  0  0
  1  2  1  0  0  0  0
  1  4  2  0  0  0  0
  1 11  1  0  0  0  0
  2  6  2  0  0  0  0
  2 12  1  0  0  0  0
  3  4  1  0  0  0  0
  3  5  2  0  0  0  0
  3 13  1  0  0  0  0
  4 10  1  0  0  0  0
  5  6  1  0  0  0  0
  5 14  1  0  0  0  0
  6  7  1  0  0  0  0
  7  8  2  0  0  0  0
  7  9  1  0  0  0  0
M  END
> <Energy>
15.269

> <Ring Energy>
17.609

> <VC.Vconf.Error>
N/A

> <Time>
1.248008

> <MaxConf>
N/A

$$$$
