o5_mol_1

Vconf v2.1
 14 14  0  0  0  0  0  0  0  0999 V2000
    1.7470   -0.4540    0.4250 C   0  0  0  0  0  0  0  0  0  0  0
    1.8390    0.9390    0.6100 C   0  0  0  0  0  0  0  0  0  0  0
   -0.6580   -0.2450    0.1150 C   0  0  0  0  0  0  0  0  0  0  0
    0.4950   -1.0440    0.1770 C   0  0  0  0  0  0  0  0  0  0  0
   -0.5620    1.1440    0.3010 C   0  0  0  0  0  0  0  0  0  0  0
    0.6870    1.7580    0.5510 C   0  0  0  0  0  0  0  0  0  0  0
    0.7810    3.1570    0.7370 C   0  0  0  0  0  0  0  0  0  0  0
   -0.2330    3.8920    0.7060 O   0  0  0  0  0  0  0  0  0  0  0
    1.8840    3.7190    0.9420 O   0  5  0  0  0  0  0  0  0  0  0
    3.1370   -1.4160    0.4990 Cl  0  0  0  0  0  0  0  0  0  0  0
    2.7510    1.3630    0.7900 H   0  0  0  0  0  0  0  0  0  0  0
   -1.5660   -0.6730   -0.0640 H   0  0  0  0  0  0  0  0  0  0  0
    0.4130   -2.0530    0.0400 H   0  0  0  0  0  0  0  0  0  0  0
   -1.4120    1.7080    0.2530 H   0  0  0  0  0  0  0  0  0  0  0
  1  2  1  0  0  0  0
  1  4  2  0  0  0  0
  1 10  1  0  0  0  0
  2  6  2  0  0  0  0
  2 11  1  0  0  0  0
  3  4  1  0  0  0  0
  3  5  2  0  0  0  0
  3 12  1  0  0  0  0
  4 13  1  0  0  0  0
  5  6  1  0  0  0  0
  5 14  1  0  0  0  0
  6  7  1  0  0  0  0
  7  8  2  0  0  0  0
  7  9  1  0  0  0  0
M  END
> <Energy>
15.261

> <Ring Energy>
17.836

$$$$
o5_mol_1

Vconf v2.1
 14 14  0  0  0  0  0  0  0  0999 V2000
    1.7469   -0.4544    0.4271 C   0  0  0  0  0  0  0  0  0  0  0
    1.8386    0.9380    0.6118 C   0  0  0  0  0  0  0  0  0  0  0
   -0.6573   -0.2441    0.1123 C   0  0  0  0  0  0  0  0  0  0  0
    0.4948   -1.0440    0.1767 C   0  0  0  0  0  0  0  0  0  0  0
   -0.5614    1.1444    0.2987 C   0  0  0  0  0  0  0  0  0  0  0
    0.6876    1.7579    0.5514 C   0  0  0  0  0  0  0  0  0  0  0
    0.7814    3.1573    0.7380 C   0  0  0  0  0  0  0  0  0  0  0
    1.8791    3.7147    0.9693 O   0  0  0  0  0  0  0  0  0  0  0
   -0.2306    3.8963    0.6785 O   0  5  0  0  0  0  0  0  0  0  0
    3.1358   -1.4174    0.5070 Cl  0  0  0  0  0  0  0  0  0  0  0
    2.7518    1.3620    0.7928 H   0  0  0  0  0  0  0  0  0  0  0
   -1.5656   -0.6720   -0.0700 H   0  0  0  0  0  0  0  0  0  0  0
    0.4130   -2.0524    0.0391 H   0  0  0  0  0  0  0  0  0  0  0
   -1.4110    1.7086    0.2494 H   0  0  0  0  0  0  0  0  0  0  0
  1  2  1  0  0  0  0
  1  4  2  0  0  0  0
  1 10  1  0  0  0  0
  2  6  2  0  0  0  0
  2 11  1  0  0  0  0
  3  4  1  0  0  0  0
  3  5  2  0  0  0  0
  3 12  1  0  0  0  0
  4 13  1  0  0  0  0
  5  6  1  0  0  0  0
  5 14  1  0  0  0  0
  6  7  1  0  0  0  0
  7  8  2  0  0  0  0
  7  9  1  0  0  0  0
M  END
> <Energy>
15.261

> <Ring Energy>
17.836

$$$$
