o7

Vconf v2.1
 23 23  0  0  0  0  0  0  0  0999 V2000
   -0.2250    0.3790    0.3320 C   0  0  0  0  0  0  0  0  0  0  0
    1.0990    0.7760   -0.3390 C   0  0  0  0  0  0  0  0  0  0  0
   -1.2870    0.0820   -1.9350 C   0  0  0  0  0  0  0  0  0  0  0
   -1.4170    0.7640   -0.5620 C   0  0  1  0  0  0  0  0  0  0  0
    0.0360    0.4770   -2.6090 C   0  0  0  0  0  0  0  0  0  0  0
    1.2310    0.0920   -1.7140 C   0  0  1  0  0  0  0  0  0  0  0
    2.5060    0.4510   -2.3570 C   0  0  0  0  0  0  0  0  0  0  0
    2.7650    1.6430   -2.6350 O   0  0  0  0  0  0  0  0  0  0  0
    3.3450   -0.4360   -2.6310 O   0  5  0  0  0  0  0  0  0  0  0
   -2.7350    0.3530    0.1090 C   0  0  0  0  0  0  0  0  0  0  0
   -0.2310   -0.6980    0.5080 H   0  0  0  0  0  0  0  0  0  0  0
   -0.3080    0.8950    1.2890 H   0  0  0  0  0  0  0  0  0  0  0
    1.9250    0.4700    0.3050 H   0  0  0  0  0  0  0  0  0  0  0
    1.1270    1.8600   -0.4600 H   0  0  0  0  0  0  0  0  0  0  0
   -2.1170    0.3900   -2.5730 H   0  0  0  0  0  0  0  0  0  0  0
   -1.3180   -1.0020   -1.8110 H   0  0  0  0  0  0  0  0  0  0  0
   -1.4200    1.8460   -0.7030 H   0  0  0  0  0  0  0  0  0  0  0
    0.0380    1.5540   -2.7860 H   0  0  0  0  0  0  0  0  0  0  0
    0.1120   -0.0400   -3.5670 H   0  0  0  0  0  0  0  0  0  0  0
    1.2140   -0.9890   -1.5640 H   0  0  0  0  0  0  0  0  0  0  0
   -2.8270    0.8550    1.0730 H   0  0  0  0  0  0  0  0  0  0  0
   -3.5740    0.6420   -0.5250 H   0  0  0  0  0  0  0  0  0  0  0
   -2.7550   -0.7270    0.2620 H   0  0  0  0  0  0  0  0  0  0  0
  1  2  1  0  0  0  0
  1  4  1  0  0  0  0
  1 11  1  0  0  0  0
  1 12  1  0  0  0  0
  2  6  1  0  0  0  0
  2 13  1  0  0  0  0
  2 14  1  0  0  0  0
  3  4  1  0  0  0  0
  3  5  1  0  0  0  0
  3 15  1  0  0  0  0
  3 16  1  0  0  0  0
  4 10  1  6  0  0  0
  4 17  1  0  0  0  0
  5  6  1  0  0  0  0
  5 18  1  0  0  0  0
  5 19  1  0  0  0  0
  6  7  1  1  0  0  0
  6 20  1  0  0  0  0
  7  8  2  0  0  0  0
  7  9  1  0  0  0  0
 10 21  1  0  0  0  0
 10 22  1  0  0  0  0
 10 23  1  0  0  0  0
M  END
> <Energy>
1.5008

> <Ring Energy>
None

> <VC.Vconf.Error>
N/A

> <Time>
0.9048058

> <MaxConf>
N/A

$$$$
