o8_mol_1

Vconf v2.1
 17 17  0  0  0  0  0  0  0  0999 V2000
   -0.4790   -0.5200    0.3580 C   0  0  0  0  0  0  0  0  0  0  0
   -1.4780   -0.3030   -0.7850 C   0  0  0  0  0  0  0  0  0  0  0
    0.3930    1.1840   -1.1830 C   0  0  0  0  0  0  0  0  0  0  0
   -1.1360    1.1100   -1.2740 C   0  0  0  0  0  0  0  0  0  0  0
    0.8140    0.1360   -0.1400 C   0  0  0  0  0  0  0  0  0  0  0
   -2.8830   -0.4570   -0.3730 C   0  0  0  0  0  0  0  0  0  0  0
   -3.3650    0.2570    0.5340 O   0  0  0  0  0  0  0  0  0  0  0
   -3.6100   -1.3090   -0.9310 O   0  5  0  0  0  0  0  0  0  0  0
   -0.8160   -0.0100    1.2630 H   0  0  0  0  0  0  0  0  0  0  0
   -0.3320   -1.5820    0.5590 H   0  0  0  0  0  0  0  0  0  0  0
   -1.2550   -1.0120   -1.5840 H   0  0  0  0  0  0  0  0  0  0  0
    0.8320    0.9350   -2.1490 H   0  0  0  0  0  0  0  0  0  0  0
    0.7090    2.1830   -0.8800 H   0  0  0  0  0  0  0  0  0  0  0
   -1.5720    1.8600   -0.6110 H   0  0  0  0  0  0  0  0  0  0  0
   -1.4790    1.2700   -2.2960 H   0  0  0  0  0  0  0  0  0  0  0
    1.3470    0.6050    0.6880 H   0  0  0  0  0  0  0  0  0  0  0
    1.4500   -0.6140   -0.6120 H   0  0  0  0  0  0  0  0  0  0  0
  1  2  1  0  0  0  0
  1  5  1  0  0  0  0
  1  9  1  0  0  0  0
  1 10  1  0  0  0  0
  2  4  1  0  0  0  0
  2  6  1  0  0  0  0
  2 11  1  0  0  0  0
  3  4  1  0  0  0  0
  3  5  1  0  0  0  0
  3 12  1  0  0  0  0
  3 13  1  0  0  0  0
  4 14  1  0  0  0  0
  4 15  1  0  0  0  0
  5 16  1  0  0  0  0
  5 17  1  0  0  0  0
  6  7  2  0  0  0  0
  6  8  1  0  0  0  0
M  END
> <Energy>
8.9695

> <Ring Energy>
None

$$$$
o8_mol_1

Vconf v2.1
 17 17  0  0  0  0  0  0  0  0999 V2000
   -0.4344   -0.6922    0.1675 C   0  0  0  0  0  0  0  0  0  0  0
   -1.6118    0.2131   -0.2141 C   0  0  0  0  0  0  0  0  0  0  0
    0.3863    1.2098   -1.1544 C   0  0  0  0  0  0  0  0  0  0  0
   -1.0925    0.9422   -1.4596 C   0  0  0  0  0  0  0  0  0  0  0
    0.8066    0.1647   -0.1083 C   0  0  0  0  0  0  0  0  0  0  0
   -2.8661   -0.5223   -0.4453 C   0  0  0  0  0  0  0  0  0  0  0
   -2.9311   -1.4166   -1.3175 O   0  0  0  0  0  0  0  0  0  0  0
   -3.8829   -0.2562    0.2337 O   0  5  0  0  0  0  0  0  0  0  0
   -0.4096   -1.5777   -0.4713 H   0  0  0  0  0  0  0  0  0  0  0
   -0.4860   -0.9880    1.2162 H   0  0  0  0  0  0  0  0  0  0  0
   -1.7624    0.9451    0.5811 H   0  0  0  0  0  0  0  0  0  0  0
    0.5013    2.2104   -0.7380 H   0  0  0  0  0  0  0  0  0  0  0
    0.9857    1.1156   -2.0608 H   0  0  0  0  0  0  0  0  0  0  0
   -1.1672    0.2986   -2.3384 H   0  0  0  0  0  0  0  0  0  0  0
   -1.6351    1.8719   -1.6301 H   0  0  0  0  0  0  0  0  0  0  0
    1.6217   -0.4547   -0.4843 H   0  0  0  0  0  0  0  0  0  0  0
    1.1173    0.6692    0.8075 H   0  0  0  0  0  0  0  0  0  0  0
  1  2  1  0  0  0  0
  1  5  1  0  0  0  0
  1  9  1  0  0  0  0
  1 10  1  0  0  0  0
  2  4  1  0  0  0  0
  2  6  1  0  0  0  0
  2 11  1  0  0  0  0
  3  4  1  0  0  0  0
  3  5  1  0  0  0  0
  3 12  1  0  0  0  0
  3 13  1  0  0  0  0
  4 14  1  0  0  0  0
  4 15  1  0  0  0  0
  5 16  1  0  0  0  0
  5 17  1  0  0  0  0
  6  7  2  0  0  0  0
  6  8  1  0  0  0  0
M  END
> <Energy>
8.9695

> <Ring Energy>
None

$$$$
o8_mol_1

Vconf v2.1
 17 17  0  0  0  0  0  0  0  0999 V2000
   -0.4657   -0.5761    0.3112 C   0  0  0  0  0  0  0  0  0  0  0
   -1.4861   -0.2825   -0.7970 C   0  0  0  0  0  0  0  0  0  0  0
    0.3938    1.2177   -1.1244 C   0  0  0  0  0  0  0  0  0  0  0
   -1.1371    1.1564   -1.1957 C   0  0  0  0  0  0  0  0  0  0  0
    0.8267    0.0839   -0.1820 C   0  0  0  0  0  0  0  0  0  0  0
   -2.8952   -0.4432   -0.3990 C   0  0  0  0  0  0  0  0  0  0  0
   -3.8022   -0.2083   -1.2278 O   0  0  0  0  0  0  0  0  0  0  0
   -3.2106   -0.8344    0.7487 O   0  5  0  0  0  0  0  0  0  0  0
   -0.7745   -0.1077    1.2473 H   0  0  0  0  0  0  0  0  0  0  0
   -0.3324   -1.6496    0.4543 H   0  0  0  0  0  0  0  0  0  0  0
   -1.2840   -0.9415   -1.6419 H   0  0  0  0  0  0  0  0  0  0  0
    0.8178    1.0518   -2.1159 H   0  0  0  0  0  0  0  0  0  0  0
    0.7173    2.1860   -0.7409 H   0  0  0  0  0  0  0  0  0  0  0
   -1.4946    1.3866   -2.2002 H   0  0  0  0  0  0  0  0  0  0  0
   -1.5595    1.8621   -0.4782 H   0  0  0  0  0  0  0  0  0  0  0
    1.4016    0.4745    0.6592 H   0  0  0  0  0  0  0  0  0  0  0
    1.4247   -0.6425   -0.7336 H   0  0  0  0  0  0  0  0  0  0  0
  1  2  1  0  0  0  0
  1  5  1  0  0  0  0
  1  9  1  0  0  0  0
  1 10  1  0  0  0  0
  2  4  1  0  0  0  0
  2  6  1  0  0  0  0
  2 11  1  0  0  0  0
  3  4  1  0  0  0  0
  3  5  1  0  0  0  0
  3 12  1  0  0  0  0
  3 13  1  0  0  0  0
  4 14  1  0  0  0  0
  4 15  1  0  0  0  0
  5 16  1  0  0  0  0
  5 17  1  0  0  0  0
  6  7  2  0  0  0  0
  6  8  1  0  0  0  0
M  END
> <Energy>
9.3037

> <Ring Energy>
None

$$$$
o8_mol_1

Vconf v2.1
 17 17  0  0  0  0  0  0  0  0999 V2000
   -0.4137   -0.8539   -0.1109 C   0  0  0  0  0  0  0  0  0  0  0
   -1.5684    0.1571   -0.1291 C   0  0  0  0  0  0  0  0  0  0  0
    0.3844    1.2680   -1.0479 C   0  0  0  0  0  0  0  0  0  0  0
   -1.1334    1.1368   -1.2255 C   0  0  0  0  0  0  0  0  0  0  0
    0.8416    0.0043   -0.3029 C   0  0  0  0  0  0  0  0  0  0  0
   -2.8982   -0.4270   -0.3744 C   0  0  0  0  0  0  0  0  0  0  0
   -3.9010    0.3191   -0.4264 O   0  0  0  0  0  0  0  0  0  0  0
   -3.0555   -1.6626   -0.5098 O   0  5  0  0  0  0  0  0  0  0  0
   -0.5044   -1.5509   -0.9457 H   0  0  0  0  0  0  0  0  0  0  0
   -0.3790   -1.4004    0.8329 H   0  0  0  0  0  0  0  0  0  0  0
   -1.5880    0.6826    0.8261 H   0  0  0  0  0  0  0  0  0  0  0
    0.6123    2.1499   -0.4473 H   0  0  0  0  0  0  0  0  0  0  0
    0.8747    1.3449   -2.0189 H   0  0  0  0  0  0  0  0  0  0  0
   -1.6285    2.1022   -1.1128 H   0  0  0  0  0  0  0  0  0  0  0
   -1.3459    0.7210   -2.2121 H   0  0  0  0  0  0  0  0  0  0  0
    1.5913   -0.5388   -0.8805 H   0  0  0  0  0  0  0  0  0  0  0
    1.2519    0.2806    0.6691 H   0  0  0  0  0  0  0  0  0  0  0
  1  2  1  0  0  0  0
  1  5  1  0  0  0  0
  1  9  1  0  0  0  0
  1 10  1  0  0  0  0
  2  4  1  0  0  0  0
  2  6  1  0  0  0  0
  2 11  1  0  0  0  0
  3  4  1  0  0  0  0
  3  5  1  0  0  0  0
  3 12  1  0  0  0  0
  3 13  1  0  0  0  0
  4 14  1  0  0  0  0
  4 15  1  0  0  0  0
  5 16  1  0  0  0  0
  5 17  1  0  0  0  0
  6  7  2  0  0  0  0
  6  8  1  0  0  0  0
M  END
> <Energy>
9.3037

> <Ring Energy>
None

$$$$
o8_mol_1

Vconf v2.1
 17 17  0  0  0  0  0  0  0  0999 V2000
   -0.4882   -0.4580    0.3979 C   0  0  0  0  0  0  0  0  0  0  0
   -1.4753   -0.3122   -0.7670 C   0  0  0  0  0  0  0  0  0  0  0
    0.3995    1.1458   -1.2396 C   0  0  0  0  0  0  0  0  0  0  0
   -1.1294    1.0752   -1.3249 C   0  0  0  0  0  0  0  0  0  0  0
    0.8063    0.1935   -0.1045 C   0  0  0  0  0  0  0  0  0  0  0
   -2.8797   -0.4810   -0.3572 C   0  0  0  0  0  0  0  0  0  0  0
   -3.2566   -1.5723    0.1227 O   0  0  0  0  0  0  0  0  0  0  0
   -3.7169    0.4396   -0.4992 O   0  5  0  0  0  0  0  0  0  0  0
   -0.8504    0.0874    1.2722 H   0  0  0  0  0  0  0  0  0  0  0
   -0.3294   -1.5065    0.6526 H   0  0  0  0  0  0  0  0  0  0  0
   -1.2386   -1.0613   -1.5239 H   0  0  0  0  0  0  0  0  0  0  0
    0.8357    0.8032   -2.1782 H   0  0  0  0  0  0  0  0  0  0  0
    0.7242    2.1656   -1.0291 H   0  0  0  0  0  0  0  0  0  0  0
   -1.5613    1.8571   -0.6971 H   0  0  0  0  0  0  0  0  0  0  0
   -1.4742    1.1871   -2.3538 H   0  0  0  0  0  0  0  0  0  0  0
    1.2933    0.7412    0.7037 H   0  0  0  0  0  0  0  0  0  0  0
    1.4810   -0.5715   -0.4904 H   0  0  0  0  0  0  0  0  0  0  0
  1  2  1  0  0  0  0
  1  5  1  0  0  0  0
  1  9  1  0  0  0  0
  1 10  1  0  0  0  0
  2  4  1  0  0  0  0
  2  6  1  0  0  0  0
  2 11  1  0  0  0  0
  3  4  1  0  0  0  0
  3  5  1  0  0  0  0
  3 12  1  0  0  0  0
  3 13  1  0  0  0  0
  4 14  1  0  0  0  0
  4 15  1  0  0  0  0
  5 16  1  0  0  0  0
  5 17  1  0  0  0  0
  6  7  2  0  0  0  0
  6  8  1  0  0  0  0
M  END
> <Energy>
9.3038

> <Ring Energy>
None

$$$$
o8_mol_1

Vconf v2.1
 17 17  0  0  0  0  0  0  0  0999 V2000
   -0.4602   -0.5763    0.2921 C   0  0  0  0  0  0  0  0  0  0  0
   -1.6161    0.2834   -0.2347 C   0  0  0  0  0  0  0  0  0  0  0
    0.4097    1.1027   -1.2782 C   0  0  0  0  0  0  0  0  0  0  0
   -1.0645    0.8007   -1.5703 C   0  0  0  0  0  0  0  0  0  0  0
    0.8078    0.1869   -0.1104 C   0  0  0  0  0  0  0  0  0  0  0
   -2.8856   -0.4563   -0.3352 C   0  0  0  0  0  0  0  0  0  0  0
   -3.4085   -0.9296    0.6972 O   0  0  0  0  0  0  0  0  0  0  0
   -3.4700   -0.6049   -1.4329 O   0  5  0  0  0  0  0  0  0  0  0
   -0.4624   -1.5540   -0.1949 H   0  0  0  0  0  0  0  0  0  0  0
   -0.5202   -0.6993    1.3741 H   0  0  0  0  0  0  0  0  0  0  0
   -1.7571    1.1318    0.4365 H   0  0  0  0  0  0  0  0  0  0  0
    0.5184    2.1453   -0.9786 H   0  0  0  0  0  0  0  0  0  0  0
    1.0228    0.9027   -2.1579 H   0  0  0  0  0  0  0  0  0  0  0
   -1.1281    0.0244   -2.3354 H   0  0  0  0  0  0  0  0  0  0  0
   -1.5944    1.6957   -1.8991 H   0  0  0  0  0  0  0  0  0  0  0
    1.5893   -0.5108   -0.4154 H   0  0  0  0  0  0  0  0  0  0  0
    1.1590    0.7906    0.7272 H   0  0  0  0  0  0  0  0  0  0  0
  1  2  1  0  0  0  0
  1  5  1  0  0  0  0
  1  9  1  0  0  0  0
  1 10  1  0  0  0  0
  2  4  1  0  0  0  0
  2  6  1  0  0  0  0
  2 11  1  0  0  0  0
  3  4  1  0  0  0  0
  3  5  1  0  0  0  0
  3 12  1  0  0  0  0
  3 13  1  0  0  0  0
  4 14  1  0  0  0  0
  4 15  1  0  0  0  0
  5 16  1  0  0  0  0
  5 17  1  0  0  0  0
  6  7  2  0  0  0  0
  6  8  1  0  0  0  0
M  END
> <Energy>
9.3038

> <Ring Energy>
None

$$$$
o8_mol_1

Vconf v2.1
 17 17  0  0  0  0  0  0  0  0999 V2000
   -0.3441   -0.8906   -0.0084 C   0  0  0  0  0  0  0  0  0  0  0
   -1.5544   -0.4280   -0.8350 C   0  0  0  0  0  0  0  0  0  0  0
    0.1520    1.3187   -0.9671 C   0  0  0  0  0  0  0  0  0  0  0
   -0.9414    0.6153   -1.7813 C   0  0  0  0  0  0  0  0  0  0  0
    0.5350    0.3553    0.1661 C   0  0  0  0  0  0  0  0  0  0  0
   -2.6353    0.1279    0.0008 C   0  0  0  0  0  0  0  0  0  0  0
   -2.4333    1.1013    0.7594 O   0  0  0  0  0  0  0  0  0  0  0
   -3.7800   -0.3753   -0.0460 O   0  5  0  0  0  0  0  0  0  0  0
   -0.6382   -1.3068    0.9568 H   0  0  0  0  0  0  0  0  0  0  0
    0.2085   -1.6404   -0.5749 H   0  0  0  0  0  0  0  0  0  0  0
   -1.9458   -1.2658   -1.4139 H   0  0  0  0  0  0  0  0  0  0  0
    1.0134    1.5407   -1.5962 H   0  0  0  0  0  0  0  0  0  0  0
   -0.2438    2.2420   -0.5426 H   0  0  0  0  0  0  0  0  0  0  0
   -0.4818    0.1020   -2.6272 H   0  0  0  0  0  0  0  0  0  0  0
   -1.6838    1.3270   -2.1467 H   0  0  0  0  0  0  0  0  0  0  0
    0.3231    0.8220    1.1301 H   0  0  0  0  0  0  0  0  0  0  0
    1.5900    0.0878    0.1099 H   0  0  0  0  0  0  0  0  0  0  0
  1  2  1  0  0  0  0
  1  5  1  0  0  0  0
  1  9  1  0  0  0  0
  1 10  1  0  0  0  0
  2  4  1  0  0  0  0
  2  6  1  0  0  0  0
  2 11  1  0  0  0  0
  3  4  1  0  0  0  0
  3  5  1  0  0  0  0
  3 12  1  0  0  0  0
  3 13  1  0  0  0  0
  4 14  1  0  0  0  0
  4 15  1  0  0  0  0
  5 16  1  0  0  0  0
  5 17  1  0  0  0  0
  6  7  2  0  0  0  0
  6  8  1  0  0  0  0
M  END
> <Energy>
10.033

> <Ring Energy>
None

$$$$
o8_mol_1

Vconf v2.1
 17 17  0  0  0  0  0  0  0  0999 V2000
   -0.5349   -0.2601    0.6381 C   0  0  0  0  0  0  0  0  0  0  0
   -1.7505    0.2200   -0.1704 C   0  0  0  0  0  0  0  0  0  0  0
    0.2651    0.9450   -1.3504 C   0  0  0  0  0  0  0  0  0  0  0
   -1.1693    1.3684   -1.0090 C   0  0  0  0  0  0  0  0  0  0  0
    0.6714   -0.0957   -0.2963 C   0  0  0  0  0  0  0  0  0  0  0
   -2.3400   -0.8479   -0.9998 C   0  0  0  0  0  0  0  0  0  0  0
   -1.6607   -1.4518   -1.8588 O   0  0  0  0  0  0  0  0  0  0  0
   -3.5426   -1.1600   -0.8506 O   0  5  0  0  0  0  0  0  0  0  0
   -0.6418   -1.2947    0.9692 H   0  0  0  0  0  0  0  0  0  0  0
   -0.4053    0.3879    1.5051 H   0  0  0  0  0  0  0  0  0  0  0
   -2.5127    0.6075    0.5072 H   0  0  0  0  0  0  0  0  0  0  0
    0.9334    1.8051   -1.3251 H   0  0  0  0  0  0  0  0  0  0  0
    0.2867    0.4886   -2.3406 H   0  0  0  0  0  0  0  0  0  0  0
   -1.1389    2.2734   -0.4005 H   0  0  0  0  0  0  0  0  0  0  0
   -1.7531    1.5560   -1.9119 H   0  0  0  0  0  0  0  0  0  0  0
    0.8886   -1.0469   -0.7864 H   0  0  0  0  0  0  0  0  0  0  0
    1.5445    0.2381    0.2641 H   0  0  0  0  0  0  0  0  0  0  0
  1  2  1  0  0  0  0
  1  5  1  0  0  0  0
  1  9  1  0  0  0  0
  1 10  1  0  0  0  0
  2  4  1  0  0  0  0
  2  6  1  0  0  0  0
  2 11  1  0  0  0  0
  3  4  1  0  0  0  0
  3  5  1  0  0  0  0
  3 12  1  0  0  0  0
  3 13  1  0  0  0  0
  4 14  1  0  0  0  0
  4 15  1  0  0  0  0
  5 16  1  0  0  0  0
  5 17  1  0  0  0  0
  6  7  2  0  0  0  0
  6  8  1  0  0  0  0
M  END
> <Energy>
10.033

> <Ring Energy>
None

$$$$
o8_mol_1

Vconf v2.1
 17 17  0  0  0  0  0  0  0  0999 V2000
   -0.3609   -0.9818   -0.2053 C   0  0  0  0  0  0  0  0  0  0  0
   -1.6226   -0.3462   -0.8144 C   0  0  0  0  0  0  0  0  0  0  0
    0.1668    1.3086   -0.9123 C   0  0  0  0  0  0  0  0  0  0  0
   -1.0263    0.7559   -1.7034 C   0  0  0  0  0  0  0  0  0  0  0
    0.6015    0.1863    0.0423 C   0  0  0  0  0  0  0  0  0  0  0
   -2.5650    0.1988    0.1829 C   0  0  0  0  0  0  0  0  0  0  0
   -3.6244    0.7416   -0.2031 O   0  0  0  0  0  0  0  0  0  0  0
   -2.3485    0.1138    1.4139 O   0  5  0  0  0  0  0  0  0  0  0
   -0.5725   -1.5271    0.7150 H   0  0  0  0  0  0  0  0  0  0  0
    0.0823   -1.6603   -0.9361 H   0  0  0  0  0  0  0  0  0  0  0
   -2.1470   -1.0796   -1.4273 H   0  0  0  0  0  0  0  0  0  0  0
    0.9777    1.5850   -1.5867 H   0  0  0  0  0  0  0  0  0  0  0
   -0.1471    2.1789   -0.3343 H   0  0  0  0  0  0  0  0  0  0  0
   -1.7484    1.5406   -1.9351 H   0  0  0  0  0  0  0  0  0  0  0
   -0.6646    0.3088   -2.6298 H   0  0  0  0  0  0  0  0  0  0  0
    0.5090    0.5270    1.0736 H   0  0  0  0  0  0  0  0  0  0  0
    1.6299   -0.1172   -0.1562 H   0  0  0  0  0  0  0  0  0  0  0
  1  2  1  0  0  0  0
  1  5  1  0  0  0  0
  1  9  1  0  0  0  0
  1 10  1  0  0  0  0
  2  4  1  0  0  0  0
  2  6  1  0  0  0  0
  2 11  1  0  0  0  0
  3  4  1  0  0  0  0
  3  5  1  0  0  0  0
  3 12  1  0  0  0  0
  3 13  1  0  0  0  0
  4 14  1  0  0  0  0
  4 15  1  0  0  0  0
  5 16  1  0  0  0  0
  5 17  1  0  0  0  0
  6  7  2  0  0  0  0
  6  8  1  0  0  0  0
M  END
> <Energy>
10.315

> <Ring Energy>
None

$$$$
o8_mol_1

Vconf v2.1
 17 17  0  0  0  0  0  0  0  0999 V2000
   -0.4146   -0.3761    0.5640 C   0  0  0  0  0  0  0  0  0  0  0
   -1.6781    0.2795   -0.0198 C   0  0  0  0  0  0  0  0  0  0  0
    0.2042    0.8874   -1.4472 C   0  0  0  0  0  0  0  0  0  0  0
   -1.0871    1.4425   -0.8314 C   0  0  0  0  0  0  0  0  0  0  0
    0.6424   -0.2742   -0.5426 C   0  0  0  0  0  0  0  0  0  0  0
   -2.4922   -0.6218   -0.8593 C   0  0  0  0  0  0  0  0  0  0  0
   -3.5417   -0.1908   -1.3873 O   0  0  0  0  0  0  0  0  0  0  0
   -2.1770   -1.8204   -1.0425 O   0  5  0  0  0  0  0  0  0  0  0
   -0.5828   -1.4115    0.8618 H   0  0  0  0  0  0  0  0  0  0  0
   -0.0827    0.2015    1.4283 H   0  0  0  0  0  0  0  0  0  0  0
   -2.3016    0.6642    0.7874 H   0  0  0  0  0  0  0  0  0  0  0
    0.9710    1.6613   -1.4897 H   0  0  0  0  0  0  0  0  0  0  0
    0.0007    0.5121   -2.4511 H   0  0  0  0  0  0  0  0  0  0  0
   -1.7718    1.8040   -1.6005 H   0  0  0  0  0  0  0  0  0  0  0
   -0.8375    2.2589   -0.1531 H   0  0  0  0  0  0  0  0  0  0  0
    0.6621   -1.1993   -1.1188 H   0  0  0  0  0  0  0  0  0  0  0
    1.6270   -0.0841   -0.1142 H   0  0  0  0  0  0  0  0  0  0  0
  1  2  1  0  0  0  0
  1  5  1  0  0  0  0
  1  9  1  0  0  0  0
  1 10  1  0  0  0  0
  2  4  1  0  0  0  0
  2  6  1  0  0  0  0
  2 11  1  0  0  0  0
  3  4  1  0  0  0  0
  3  5  1  0  0  0  0
  3 12  1  0  0  0  0
  3 13  1  0  0  0  0
  4 14  1  0  0  0  0
  4 15  1  0  0  0  0
  5 16  1  0  0  0  0
  5 17  1  0  0  0  0
  6  7  2  0  0  0  0
  6  8  1  0  0  0  0
M  END
> <Energy>
10.315

> <Ring Energy>
None

$$$$
o8_mol_1

Vconf v2.1
 17 17  0  0  0  0  0  0  0  0999 V2000
   -0.3606   -0.9311   -0.1062 C   0  0  0  0  0  0  0  0  0  0  0
   -1.5807   -0.3830   -0.8608 C   0  0  0  0  0  0  0  0  0  0  0
    0.1576    1.3290   -0.9142 C   0  0  0  0  0  0  0  0  0  0  0
   -0.9451    0.6857   -1.7649 C   0  0  0  0  0  0  0  0  0  0  0
    0.5408    0.2848    0.1455 C   0  0  0  0  0  0  0  0  0  0  0
   -2.6100    0.1409    0.0600 C   0  0  0  0  0  0  0  0  0  0  0
   -2.9336    1.3503    0.0696 O   0  0  0  0  0  0  0  0  0  0  0
   -3.1959   -0.6429    0.8408 O   0  5  0  0  0  0  0  0  0  0  0
   -0.6349   -1.4231    0.8290 H   0  0  0  0  0  0  0  0  0  0  0
    0.1657   -1.6392   -0.7478 H   0  0  0  0  0  0  0  0  0  0  0
   -2.0273   -1.1673   -1.4735 H   0  0  0  0  0  0  0  0  0  0  0
    1.0158    1.5899   -1.5335 H   0  0  0  0  0  0  0  0  0  0  0
   -0.2313    2.2225   -0.4234 H   0  0  0  0  0  0  0  0  0  0  0
   -0.4898    0.1969   -2.6278 H   0  0  0  0  0  0  0  0  0  0  0
   -1.6693    1.4263   -2.1067 H   0  0  0  0  0  0  0  0  0  0  0
    0.3471    0.6867    1.1415 H   0  0  0  0  0  0  0  0  0  0  0
    1.5917    0.0064    0.0563 H   0  0  0  0  0  0  0  0  0  0  0
  1  2  1  0  0  0  0
  1  5  1  0  0  0  0
  1  9  1  0  0  0  0
  1 10  1  0  0  0  0
  2  4  1  0  0  0  0
  2  6  1  0  0  0  0
  2 11  1  0  0  0  0
  3  4  1  0  0  0  0
  3  5  1  0  0  0  0
  3 12  1  0  0  0  0
  3 13  1  0  0  0  0
  4 14  1  0  0  0  0
  4 15  1  0  0  0  0
  5 16  1  0  0  0  0
  5 17  1  0  0  0  0
  6  7  2  0  0  0  0
  6  8  1  0  0  0  0
M  END
> <Energy>
10.316

> <Ring Energy>
None

$$$$
o8_mol_1

Vconf v2.1
 17 17  0  0  0  0  0  0  0  0999 V2000
   -0.5067   -0.3570    0.5803 C   0  0  0  0  0  0  0  0  0  0  0
   -1.7357    0.2261   -0.1324 C   0  0  0  0  0  0  0  0  0  0  0
    0.2486    0.9715   -1.3417 C   0  0  0  0  0  0  0  0  0  0  0
   -1.1357    1.4345   -0.8696 C   0  0  0  0  0  0  0  0  0  0  0
    0.6573   -0.1733   -0.4022 C   0  0  0  0  0  0  0  0  0  0  0
   -2.3801   -0.7627   -1.0206 C   0  0  0  0  0  0  0  0  0  0  0
   -2.4377   -0.5982   -2.2603 O   0  0  0  0  0  0  0  0  0  0  0
   -2.9049   -1.7863   -0.5263 O   0  5  0  0  0  0  0  0  0  0  0
   -0.6390   -1.4070    0.8482 H   0  0  0  0  0  0  0  0  0  0  0
   -0.3088    0.2251    1.4815 H   0  0  0  0  0  0  0  0  0  0  0
   -2.4687    0.5669    0.6002 H   0  0  0  0  0  0  0  0  0  0  0
    0.9643    1.7920   -1.2918 H   0  0  0  0  0  0  0  0  0  0  0
    0.1819    0.5987   -2.3650 H   0  0  0  0  0  0  0  0  0  0  0
   -1.0142    2.2577   -0.1636 H   0  0  0  0  0  0  0  0  0  0  0
   -1.7545    1.7613   -1.7062 H   0  0  0  0  0  0  0  0  0  0  0
    0.7988   -1.0880   -0.9806 H   0  0  0  0  0  0  0  0  0  0  0
    1.5751    0.0715    0.1341 H   0  0  0  0  0  0  0  0  0  0  0
  1  2  1  0  0  0  0
  1  5  1  0  0  0  0
  1  9  1  0  0  0  0
  1 10  1  0  0  0  0
  2  4  1  0  0  0  0
  2  6  1  0  0  0  0
  2 11  1  0  0  0  0
  3  4  1  0  0  0  0
  3  5  1  0  0  0  0
  3 12  1  0  0  0  0
  3 13  1  0  0  0  0
  4 14  1  0  0  0  0
  4 15  1  0  0  0  0
  5 16  1  0  0  0  0
  5 17  1  0  0  0  0
  6  7  2  0  0  0  0
  6  8  1  0  0  0  0
M  END
> <Energy>
10.316

> <Ring Energy>
None

$$$$
