o9

Vconf v2.1
 23 23  0  0  0  0  0  0  0  0999 V2000
   -0.2580   -0.7110   -0.7090 C   0  0  0  0  0  0  0  0  0  0  0
   -0.3920    0.5590    0.1510 C   0  0  0  0  0  0  0  0  0  0  0
   -2.1090   -0.5170    1.7470 C   0  0  0  0  0  0  0  0  0  0  0
   -2.5140   -1.7430    0.9100 C   0  0  0  0  0  0  0  0  0  0  0
   -0.0390   -1.9630    0.1580 C   0  0  0  0  0  0  0  0  0  0  0
   -1.3420   -2.6750    0.5580 C   0  0  0  0  0  0  0  0  0  0  0
   -1.7590    0.6980    0.8560 C   0  0  0  0  0  0  0  0  0  0  0
   -1.7710    1.9340    1.6580 C   0  0  0  0  0  0  0  0  0  0  0
   -0.9840    2.0770    2.6200 O   0  0  0  0  0  0  0  0  0  0  0
   -2.5740    2.8540    1.3870 O   0  5  0  0  0  0  0  0  0  0  0
   -1.1330   -0.8330   -1.3480 H   0  0  0  0  0  0  0  0  0  0  0
    0.6190   -0.5870   -1.3460 H   0  0  0  0  0  0  0  0  0  0  0
   -0.2570    1.4190   -0.5080 H   0  0  0  0  0  0  0  0  0  0  0
    0.4100    0.5700    0.8920 H   0  0  0  0  0  0  0  0  0  0  0
   -1.2710   -0.7630    2.4010 H   0  0  0  0  0  0  0  0  0  0  0
   -2.9670   -0.2570    2.3710 H   0  0  0  0  0  0  0  0  0  0  0
   -2.9990   -1.4130   -0.0090 H   0  0  0  0  0  0  0  0  0  0  0
   -3.2390   -2.3260    1.4800 H   0  0  0  0  0  0  0  0  0  0  0
    0.5690   -2.6720   -0.4040 H   0  0  0  0  0  0  0  0  0  0  0
    0.5110   -1.6890    1.0590 H   0  0  0  0  0  0  0  0  0  0  0
   -1.1290   -3.3090    1.4200 H   0  0  0  0  0  0  0  0  0  0  0
   -1.6570   -3.3150   -0.2660 H   0  0  0  0  0  0  0  0  0  0  0
   -2.5270    0.7930    0.0870 H   0  0  0  0  0  0  0  0  0  0  0
  1  2  1  0  0  0  0
  1  5  1  0  0  0  0
  1 11  1  0  0  0  0
  1 12  1  0  0  0  0
  2  7  1  0  0  0  0
  2 13  1  0  0  0  0
  2 14  1  0  0  0  0
  3  4  1  0  0  0  0
  3  7  1  0  0  0  0
  3 15  1  0  0  0  0
  3 16  1  0  0  0  0
  4  6  1  0  0  0  0
  4 17  1  0  0  0  0
  4 18  1  0  0  0  0
  5  6  1  0  0  0  0
  5 19  1  0  0  0  0
  5 20  1  0  0  0  0
  6 21  1  0  0  0  0
  6 22  1  0  0  0  0
  7  8  1  0  0  0  0
  7 23  1  0  0  0  0
  8  9  2  0  0  0  0
  8 10  1  0  0  0  0
M  END
> <Energy>
8.3129

> <Ring Energy>
None

> <VC.Vconf.Error>
N/A

> <Time>
2.0592132

> <MaxConf>
N/A

$$$$
