CD

Vconf v2.1
147154  0  0  0  0  0  0  0  0999 V2000
  -26.6160  -59.6960  -21.0210 C   0  0  2  0  0  0  0  0  0  0  0
  -27.2170  -58.7960  -20.8920 H   0  0  0  0  0  0  0  0  0  0  0
  -27.4900  -60.8260  -21.0420 O   0  0  0  0  0  0  0  0  0  0  0
  -25.8830  -59.5870  -22.3640 C   0  0  2  0  0  0  0  0  0  0  0
  -25.3220  -58.6540  -22.3730 H   0  0  0  0  0  0  0  0  0  0  0
  -26.8180  -59.5390  -23.4360 O   0  0  0  0  0  0  0  0  0  0  0
  -26.4030  -59.4660  -24.3200 H   0  0  0  0  0  0  0  0  0  0  0
  -24.9220  -60.7730  -22.5680 C   0  0  1  0  0  0  0  0  0  0  0
  -25.4700  -61.5860  -23.0470 H   0  0  0  0  0  0  0  0  0  0  0
  -23.8890  -60.3630  -23.4560 O   0  0  0  0  0  0  0  0  0  0  0
  -23.2700  -61.0780  -23.7130 H   0  0  0  0  0  0  0  0  0  0  0
  -24.2990  -61.3100  -21.2580 C   0  0  1  0  0  0  0  0  0  0  0
  -23.2550  -61.5580  -21.4520 H   0  0  0  0  0  0  0  0  0  0  0
  -24.3700  -60.2830  -20.1090 C   0  0  2  0  0  0  0  0  0  0  0
  -24.0880  -60.7710  -19.1780 H   0  0  0  0  0  0  0  0  0  0  0
  -25.6940  -59.7720  -19.9280 O   0  0  0  0  0  0  0  0  0  0  0
  -23.3730  -59.1290  -20.3090 C   0  0  0  0  0  0  0  0  0  0  0
  -23.5190  -58.6490  -21.2750 H   0  0  0  0  0  0  0  0  0  0  0
  -23.5200  -58.3920  -19.5200 H   0  0  0  0  0  0  0  0  0  0  0
  -22.0400  -59.6160  -20.2360 O   0  0  0  0  0  0  0  0  0  0  0
  -21.8020  -60.2580  -20.9370 H   0  0  0  0  0  0  0  0  0  0  0
  -29.9410  -61.9340  -17.8700 C   0  0  2  0  0  0  0  0  0  0  0
  -29.0220  -62.0250  -17.2870 H   0  0  0  0  0  0  0  0  0  0  0
  -31.0600  -62.3130  -17.0750 O   0  0  0  0  0  0  0  0  0  0  0
  -30.0850  -60.4680  -18.3010 C   0  0  2  0  0  0  0  0  0  0  0
  -30.1680  -59.8370  -17.4150 H   0  0  0  0  0  0  0  0  0  0  0
  -31.2690  -60.3090  -19.0740 O   0  0  0  0  0  0  0  0  0  0  0
  -31.3390  -60.9220  -19.8340 H   0  0  0  0  0  0  0  0  0  0  0
  -28.8430  -60.0480  -19.1160 C   0  0  1  0  0  0  0  0  0  0  0
  -29.1500  -59.2950  -19.8440 H   0  0  0  0  0  0  0  0  0  0  0
  -27.9020  -59.4640  -18.2230 O   0  0  0  0  0  0  0  0  0  0  0
  -27.0720  -59.1640  -18.6480 H   0  0  0  0  0  0  0  0  0  0  0
  -28.1680  -61.2340  -19.8500 C   0  0  1  0  0  0  0  0  0  0  0
  -27.4430  -61.7030  -19.1820 H   0  0  0  0  0  0  0  0  0  0  0
  -29.2460  -62.2760  -20.2080 C   0  0  2  0  0  0  0  0  0  0  0
  -30.0010  -61.7860  -20.8230 H   0  0  0  0  0  0  0  0  0  0  0
  -29.8680  -62.7820  -19.0200 O   0  0  0  0  0  0  0  0  0  0  0
  -28.6840  -63.4570  -21.0070 C   0  0  0  0  0  0  0  0  0  0  0
  -28.1760  -63.0960  -21.9010 H   0  0  0  0  0  0  0  0  0  0  0
  -27.9860  -64.0130  -20.3880 H   0  0  0  0  0  0  0  0  0  0  0
  -29.7450  -64.3210  -21.3860 O   0  0  0  0  0  0  0  0  0  0  0
  -30.2500  -64.6830  -20.6280 H   0  0  0  0  0  0  0  0  0  0  0
  -31.0790  -65.4830  -14.3970 C   0  0  2  0  0  0  0  0  0  0  0
  -30.0880  -65.1240  -14.1150 H   0  0  0  0  0  0  0  0  0  0  0
  -31.3570  -66.6970  -13.6990 O   0  0  0  0  0  0  0  0  0  0  0
  -32.1140  -64.3810  -14.1010 C   0  0  2  0  0  0  0  0  0  0  0
  -31.8070  -63.8440  -13.2040 H   0  0  0  0  0  0  0  0  0  0  0
  -33.3950  -64.9570  -13.8690 O   0  0  0  0  0  0  0  0  0  0  0
  -33.7260  -65.5000  -14.6150 H   0  0  0  0  0  0  0  0  0  0  0
  -32.2160  -63.3910  -15.2800 C   0  0  1  0  0  0  0  0  0  0  0
  -32.9950  -63.7280  -15.9660 H   0  0  0  0  0  0  0  0  0  0  0
  -32.5660  -62.1010  -14.7950 O   0  0  0  0  0  0  0  0  0  0  0
  -32.6300  -61.4200  -15.4990 H   0  0  0  0  0  0  0  0  0  0  0
  -30.8930  -63.3050  -16.0610 C   0  0  1  0  0  0  0  0  0  0  0
  -30.1120  -62.9830  -15.3710 H   0  0  0  0  0  0  0  0  0  0  0
  -30.5470  -64.7040  -16.6310 C   0  0  2  0  0  0  0  0  0  0  0
  -30.9920  -64.8090  -17.6210 H   0  0  0  0  0  0  0  0  0  0  0
  -31.0810  -65.7410  -15.7980 O   0  0  0  0  0  0  0  0  0  0  0
  -29.0280  -64.9240  -16.7470 C   0  0  0  0  0  0  0  0  0  0  0
  -28.6040  -64.2780  -17.5140 H   0  0  0  0  0  0  0  0  0  0  0
  -28.5420  -64.7160  -15.7940 H   0  0  0  0  0  0  0  0  0  0  0
  -28.7880  -66.2770  -17.1010 O   0  0  0  0  0  0  0  0  0  0  0
  -29.1680  -66.9250  -16.4690 H   0  0  0  0  0  0  0  0  0  0  0
  -30.1300  -67.8450   -9.8050 C   0  0  2  0  0  0  0  0  0  0  0
  -30.1230  -67.0130   -9.1020 H   0  0  0  0  0  0  0  0  0  0  0
  -29.5670  -68.9930   -9.1530 O   0  0  0  0  0  0  0  0  0  0  0
  -31.5950  -68.1130  -10.2230 C   0  0  2  0  0  0  0  0  0  0  0
  -32.2260  -67.3360   -9.7880 H   0  0  0  0  0  0  0  0  0  0  0
  -32.0630  -69.3740   -9.7590 O   0  0  0  0  0  0  0  0  0  0  0
  -32.9780  -69.5810  -10.0460 H   0  0  0  0  0  0  0  0  0  0  0
  -31.7490  -68.0610  -11.7520 C   0  0  1  0  0  0  0  0  0  0  0
  -31.1620  -68.8610  -12.2040 H   0  0  0  0  0  0  0  0  0  0  0
  -33.1160  -68.2290  -12.1060 O   0  0  0  0  0  0  0  0  0  0  0
  -33.2840  -68.1590  -13.0690 H   0  0  0  0  0  0  0  0  0  0  0
  -31.2510  -66.7030  -12.2720 C   0  0  1  0  0  0  0  0  0  0  0
  -31.9020  -65.9300  -11.8610 H   0  0  0  0  0  0  0  0  0  0  0
  -29.7920  -66.4590  -11.8200 C   0  0  2  0  0  0  0  0  0  0  0
  -29.1410  -66.4930  -12.6930 H   0  0  0  0  0  0  0  0  0  0  0
  -29.3400  -67.4890  -10.9400 O   0  0  0  0  0  0  0  0  0  0  0
  -29.6380  -65.0750  -11.1680 C   0  0  0  0  0  0  0  0  0  0  0
  -30.0250  -64.3060  -11.8360 H   0  0  0  0  0  0  0  0  0  0  0
  -30.1900  -65.0420  -10.2290 H   0  0  0  0  0  0  0  0  0  0  0
  -28.2670  -64.8090  -10.9210 O   0  0  0  0  0  0  0  0  0  0  0
  -27.8100  -65.5090  -10.4080 H   0  0  0  0  0  0  0  0  0  0  0
  -26.1510  -67.5460  -10.4590 C   0  0  2  0  0  0  0  0  0  0  0
  -25.1540  -67.1370  -10.2950 H   0  0  0  0  0  0  0  0  0  0  0
  -26.6740  -67.0970  -11.7110 O   0  0  0  0  0  0  0  0  0  0  0
  -26.0810  -69.0870  -10.4280 C   0  0  2  0  0  0  0  0  0  0  0
  -25.4290  -69.4100   -9.6200 H   0  0  0  0  0  0  0  0  0  0  0
  -25.5460  -69.6070  -11.6370 O   0  0  0  0  0  0  0  0  0  0  0
  -25.5220  -70.5870  -11.6670 H   0  0  0  0  0  0  0  0  0  0  0
  -27.4830  -69.6680  -10.2060 C   0  0  1  0  0  0  0  0  0  0  0
  -28.0890  -69.4260  -11.0770 H   0  0  0  0  0  0  0  0  0  0  0
  -27.3950  -71.0850  -10.1260 O   0  0  0  0  0  0  0  0  0  0  0
  -28.2620  -71.5310  -10.0130 H   0  0  0  0  0  0  0  0  0  0  0
  -28.1560  -69.1220   -8.9240 C   0  0  1  0  0  0  0  0  0  0  0
  -28.0430  -69.8750   -8.1440 H   0  0  0  0  0  0  0  0  0  0  0
  -27.5260  -67.8090   -8.3960 C   0  0  2  0  0  0  0  0  0  0  0
  -28.3070  -67.2370   -7.8940 H   0  0  0  0  0  0  0  0  0  0  0
  -27.0340  -67.0090   -9.4710 O   0  0  0  0  0  0  0  0  0  0  0
  -26.4410  -68.0500   -7.3300 C   0  0  0  0  0  0  0  0  0  0  0
  -26.8720  -68.6040   -6.4960 H   0  0  0  0  0  0  0  0  0  0  0
  -25.6060  -68.6150   -7.7350 H   0  0  0  0  0  0  0  0  0  0  0
  -25.9590  -66.8020   -6.8490 O   0  0  0  0  0  0  0  0  0  0  0
  -25.2680  -66.8750   -6.1580 H   0  0  0  0  0  0  0  0  0  0  0
  -25.2390  -65.5570  -15.3600 C   0  0  2  0  0  0  0  0  0  0  0
  -24.1540  -65.4510  -15.3300 H   0  0  0  0  0  0  0  0  0  0  0
  -25.7320  -64.9390  -16.5480 O   0  0  0  0  0  0  0  0  0  0  0
  -25.6010  -67.0600  -15.3080 C   0  0  2  0  0  0  0  0  0  0  0
  -24.6790  -67.6350  -15.2160 H   0  0  0  0  0  0  0  0  0  0  0
  -26.2810  -67.4970  -16.4790 O   0  0  0  0  0  0  0  0  0  0  0
  -26.5500  -68.4390  -16.4470 H   0  0  0  0  0  0  0  0  0  0  0
  -26.4880  -67.3610  -14.0900 C   0  0  1  0  0  0  0  0  0  0  0
  -27.4450  -66.8490  -14.2040 H   0  0  0  0  0  0  0  0  0  0  0
  -26.7190  -68.7610  -13.9980 O   0  0  0  0  0  0  0  0  0  0  0
  -27.1450  -69.0330  -13.1570 H   0  0  0  0  0  0  0  0  0  0  0
  -25.7930  -66.8660  -12.8120 C   0  0  1  0  0  0  0  0  0  0  0
  -24.8710  -67.4350  -12.6830 H   0  0  0  0  0  0  0  0  0  0  0
  -25.4740  -65.3560  -12.9300 C   0  0  2  0  0  0  0  0  0  0  0
  -26.0930  -64.8050  -12.2220 H   0  0  0  0  0  0  0  0  0  0  0
  -25.7850  -64.8620  -14.2380 O   0  0  0  0  0  0  0  0  0  0  0
  -24.0020  -65.0590  -12.5950 C   0  0  0  0  0  0  0  0  0  0  0
  -23.3460  -65.6520  -13.2330 H   0  0  0  0  0  0  0  0  0  0  0
  -23.8020  -64.0000  -12.7630 H   0  0  0  0  0  0  0  0  0  0  0
  -23.7320  -65.3690  -11.2360 O   0  0  0  0  0  0  0  0  0  0  0
  -22.8110  -65.1870  -10.9540 H   0  0  0  0  0  0  0  0  0  0  0
  -24.2700  -63.5160  -20.1670 C   0  0  2  0  0  0  0  0  0  0  0
  -23.2940  -63.6740  -20.6290 H   0  0  0  0  0  0  0  0  0  0  0
  -24.9840  -62.5120  -20.8950 O   0  0  0  0  0  0  0  0  0  0  0
  -25.0460  -64.8460  -20.2230 C   0  0  2  0  0  0  0  0  0  0  0
  -24.3360  -65.6730  -20.2540 H   0  0  0  0  0  0  0  0  0  0  0
  -25.8430  -64.9100  -21.4000 O   0  0  0  0  0  0  0  0  0  0  0
  -26.4440  -64.1450  -21.5120 H   0  0  0  0  0  0  0  0  0  0  0
  -25.8930  -64.9870  -18.9500 C   0  0  1  0  0  0  0  0  0  0  0
  -26.5240  -64.1060  -18.8250 H   0  0  0  0  0  0  0  0  0  0  0
  -26.7070  -66.1480  -19.0250 O   0  0  0  0  0  0  0  0  0  0  0
  -27.1850  -66.3490  -18.1910 H   0  0  0  0  0  0  0  0  0  0  0
  -24.9560  -65.1040  -17.7370 C   0  0  1  0  0  0  0  0  0  0  0
  -24.5190  -66.1050  -17.7490 H   0  0  0  0  0  0  0  0  0  0  0
  -23.8310  -64.0420  -17.7950 C   0  0  2  0  0  0  0  0  0  0  0
  -23.8000  -63.5100  -16.8430 H   0  0  0  0  0  0  0  0  0  0  0
  -24.0950  -63.0760  -18.8160 O   0  0  0  0  0  0  0  0  0  0  0
  -22.4500  -64.6810  -18.0160 C   0  0  0  0  0  0  0  0  0  0  0
  -22.4490  -65.2640  -18.9360 H   0  0  0  0  0  0  0  0  0  0  0
  -21.6990  -63.8940  -18.0890 H   0  0  0  0  0  0  0  0  0  0  0
  -22.1270  -65.5310  -16.9230 O   0  0  0  0  0  0  0  0  0  0  0
  -21.2500  -65.9640  -16.9940 H   0  0  0  0  0  0  0  0  0  0  0
  1  2  1  0  0  0  0
  1  3  1  0  0  0  0
  1  4  1  0  0  0  0
  1 16  1  0  0  0  0
  3 33  1  0  0  0  0
  4  5  1  0  0  0  0
  4  6  1  0  0  0  0
  4  8  1  0  0  0  0
  6  7  1  0  0  0  0
  8  9  1  0  0  0  0
  8 10  1  0  0  0  0
  8 12  1  0  0  0  0
 10 11  1  0  0  0  0
 12 13  1  0  0  0  0
 12 14  1  0  0  0  0
 12129  1  0  0  0  0
 14 15  1  0  0  0  0
 14 16  1  0  0  0  0
 14 17  1  0  0  0  0
 17 18  1  0  0  0  0
 17 19  1  0  0  0  0
 17 20  1  0  0  0  0
 20 21  1  0  0  0  0
 22 23  1  0  0  0  0
 22 24  1  0  0  0  0
 22 25  1  0  0  0  0
 22 37  1  0  0  0  0
 24 54  1  0  0  0  0
 25 26  1  0  0  0  0
 25 27  1  0  0  0  0
 25 29  1  0  0  0  0
 27 28  1  0  0  0  0
 29 30  1  0  0  0  0
 29 31  1  0  0  0  0
 29 33  1  0  0  0  0
 31 32  1  0  0  0  0
 33 34  1  0  0  0  0
 33 35  1  0  0  0  0
 35 36  1  0  0  0  0
 35 37  1  0  0  0  0
 35 38  1  0  0  0  0
 38 39  1  0  0  0  0
 38 40  1  0  0  0  0
 38 41  1  0  0  0  0
 41 42  1  0  0  0  0
 43 44  1  0  0  0  0
 43 45  1  0  0  0  0
 43 46  1  0  0  0  0
 43 58  1  0  0  0  0
 45 75  1  0  0  0  0
 46 47  1  0  0  0  0
 46 48  1  0  0  0  0
 46 50  1  0  0  0  0
 48 49  1  0  0  0  0
 50 51  1  0  0  0  0
 50 52  1  0  0  0  0
 50 54  1  0  0  0  0
 52 53  1  0  0  0  0
 54 55  1  0  0  0  0
 54 56  1  0  0  0  0
 56 57  1  0  0  0  0
 56 58  1  0  0  0  0
 56 59  1  0  0  0  0
 59 60  1  0  0  0  0
 59 61  1  0  0  0  0
 59 62  1  0  0  0  0
 62 63  1  0  0  0  0
 64 65  1  0  0  0  0
 64 66  1  0  0  0  0
 64 67  1  0  0  0  0
 64 79  1  0  0  0  0
 66 96  1  0  0  0  0
 67 68  1  0  0  0  0
 67 69  1  0  0  0  0
 67 71  1  0  0  0  0
 69 70  1  0  0  0  0
 71 72  1  0  0  0  0
 71 73  1  0  0  0  0
 71 75  1  0  0  0  0
 73 74  1  0  0  0  0
 75 76  1  0  0  0  0
 75 77  1  0  0  0  0
 77 78  1  0  0  0  0
 77 79  1  0  0  0  0
 77 80  1  0  0  0  0
 80 81  1  0  0  0  0
 80 82  1  0  0  0  0
 80 83  1  0  0  0  0
 83 84  1  0  0  0  0
 85 86  1  0  0  0  0
 85 87  1  0  0  0  0
 85 88  1  0  0  0  0
 85100  1  0  0  0  0
 87117  1  0  0  0  0
 88 89  1  0  0  0  0
 88 90  1  0  0  0  0
 88 92  1  0  0  0  0
 90 91  1  0  0  0  0
 92 93  1  0  0  0  0
 92 94  1  0  0  0  0
 92 96  1  0  0  0  0
 94 95  1  0  0  0  0
 96 97  1  0  0  0  0
 96 98  1  0  0  0  0
 98 99  1  0  0  0  0
 98100  1  0  0  0  0
 98101  1  0  0  0  0
101102  1  0  0  0  0
101103  1  0  0  0  0
101104  1  0  0  0  0
104105  1  0  0  0  0
106107  1  0  0  0  0
106108  1  0  0  0  0
106109  1  0  0  0  0
106121  1  0  0  0  0
108138  1  0  0  0  0
109110  1  0  0  0  0
109111  1  0  0  0  0
109113  1  0  0  0  0
111112  1  0  0  0  0
113114  1  0  0  0  0
113115  1  0  0  0  0
113117  1  0  0  0  0
115116  1  0  0  0  0
117118  1  0  0  0  0
117119  1  0  0  0  0
119120  1  0  0  0  0
119121  1  0  0  0  0
119122  1  0  0  0  0
122123  1  0  0  0  0
122124  1  0  0  0  0
122125  1  0  0  0  0
125126  1  0  0  0  0
127128  1  0  0  0  0
127129  1  0  0  0  0
127130  1  0  0  0  0
127142  1  0  0  0  0
130131  1  0  0  0  0
130132  1  0  0  0  0
130134  1  0  0  0  0
132133  1  0  0  0  0
134135  1  0  0  0  0
134136  1  0  0  0  0
134138  1  0  0  0  0
136137  1  0  0  0  0
138139  1  0  0  0  0
138140  1  0  0  0  0
140141  1  0  0  0  0
140142  1  0  0  0  0
140143  1  0  0  0  0
143144  1  0  0  0  0
143145  1  0  0  0  0
143146  1  0  0  0  0
146147  1  0  0  0  0
M  END
> <Energy>
42.878

> <Ring Energy>
None

> <VC.Vconf.Error>
N/A

> <Time>
13.4784864

> <MaxConf>
N/A

$$$$
